FoamFile { version 2.0; format ascii; class dictionary; object fvSchemes; }
ddtSchemes      { default steadyState; }
gradSchemes     { default Gauss linear; }
divSchemes      { default none; div(phi,U) Gauss linearUpwind grad(U); }
laplacianSchemes { default Gauss linear corrected; }
interpolationSchemes { default linear; }
snGradSchemes   { default corrected; }
