FoamFile { version 2.0; format ascii; class volScalarField; object T; }
dimensions      [0 0 0 0 0 0 0];
internalField   uniform 50;
boundaryField
{
    leftWall   { type fixedValue; value uniform 100; }
    rightWall  { type fixedValue; value uniform 0;   }
    bottomWall { type fixedValue; value uniform 0;   }
    topWall    { type fixedValue; value uniform 0;   }
    frontAndBack { type empty; }
}
