/*--------------------------------*- C++ -*----------------------------------*\
  MCFT โ€” Prรกtica 2: Conduรงรฃo 1D transiente
  Barra L=0.5 m, 20 cรฉlulas
  IC: T=20ยฐC  |  BC: esquerda=100ยฐC (step), direita=20ยฐC
\*---------------------------------------------------------------------------*/
FoamFile { version 2.0; format ascii; class dictionary; object blockMeshDict; }

L    0.5;
h    0.01;

vertices
(
    (0   0   0)   (  $L  0   0)   (  $L  $h  0)   (0   $h  0)
    (0   0   $h)  (  $L  0   $h)  (  $L  $h  $h)  (0   $h  $h)
);

blocks
(
    hex (0 1 2 3 4 5 6 7) (20 1 1) simpleGrading (1 1 1)
);

boundary
(
    leftWall  { type patch; faces ((0 4 7 3)); }
    rightWall { type patch; faces ((1 2 6 5)); }
    frontAndBack { type empty; faces ((0 1 2 3)(4 5 6 7)); }
    topAndBottom { type empty; faces ((0 1 5 4)(3 2 6 7)); }
);
